src/applications/data_sets/raw/ACTIVSg500_rmsmallgen_pslfv23.raw
0  100.000
THIS IS A SYNTHETIC POWER SYSTEM MODEL THAT DOES NOT REPRESE
REFERENCE: A.B. BIRCHFIELD, T. XU, K.M. GEGNER, K.S. SHETYE,
      1, 1,     0.000,     0.000,  0.000000,  0.000000,   1,1.010800,-10.807805,'WINNSBOR',138.0000,   2
      2, 1,    42.801,    11.414,  0.000000,  0.000000,   1,1.010220,-10.879805,'WINNSBOR',138.0000,   2
      3, 1,     0.000,     0.000,  0.000000,  0.000000,   1,1.002320,-12.119405,'COLUMBIA',138.0000,   2
      4, 1,   132.687,    35.383,  0.000000,  0.000000,   1,1.000150,-12.372305,'COLUMBIA',138.0000,   2
      5, 1,     0.000,     0.000,  0.000000,  0.000000,   1,1.013470,-1.278501,'SMYRNA 0',138.0000,   1
      6, 1,     3.213,     0.857,  0.000000,  0.000000,   1,1.013420,-1.284600,'SMYRNA 1',138.0000,   1
      7, 1,     0.000,     0.000,  0.000000,  0.000000,   1,1.032130,-6.948203,'EASTOVER',345.0000,   2
      8, 1,     0.000,     0.000,  0.000000,  0.000000,   1,1.023370,-8.733204,'EASTOVER',138.0000,   2
      9, 2,     0.000,     0.000,  0.000000,  0.000000,   1,1.040000,-4.145802,'EASTOVER', 13.8000,   2
     10, 1,     0.000,     0.000,  0.000000,  0.000000,   1,1.014370,-13.873405,'CHAPPELL',138.0000,   2
     11, 1,     2.472,     0.659,  0.000000,  0.000000,   1,1.014340,-13.877505,'CHAPPELL',138.0000,   2
     12, 1,     0.000,     0.000,  0.000000,  0.000000,   1,0.987900,-14.611606,'PELZER 0',138.0000,   1
     13, 1,    37.161,     9.910,  0.000000,  0.000000,   1,0.987350,-14.676406,'PELZER 1',138.0000,   1
     14, 1,     0.000,     0.000,  0.000000,  0.000000,   1,1.028930,-3.413401,'SENECA 3',345.0000,   1
     15, 1,     0.000,     0.000,  0.000000,  0.000000,   1,1.019450,-6.041502,'SENECA 3',138.0000,   1
     16, 2,     0.000,     0.000,  0.000000,  0.000000,   1,1.040000,-0.568300,'SENECA 3', 13.8000,   1
     17, 3,     0.000,     0.000,  0.000000,  0.000000,   1,1.040000, 0.000000,'SENECA 3', 13.8000,   1
     18, 2,     0.000,     0.000,  0.000000,  0.000000,   1,1.040000, 0.888600,'SENECA 3', 13.8000,   1
     19, 1,     0.000,     0.000,  0.000000,  0.000000,   1,1.016600,-14.352406,'MONETTA ',138.0000,   2
     20, 1,     4.542,     1.211,  0.000000,  0.000000,   1,1.016530,-14.361805,'MONETTA ',138.0000,   2
     21, 1,     0.000,     0.000,  0.000000,  0.000000,   1,1.007760,-12.385105,'LEXINGTO',138.0000,   2
     22, 1,   148.698,    39.653,  0.000000,  0.000000,   1,1.005630,-12.638805,'LEXINGTO',138.0000,   2
     23, 1,     0.000,     0.000,  0.000000,  0.000000,   1,1.023100,-7.949703,'WELLFORD',345.0000,   1
     24, 1,     0.000,     0.000,  0.000000,  0.000000,   1,1.005780,-10.862705,'WELLFORD',138.0000,   1
     25, 1,     2.283,     0.609,  0.000000,  0.000000,   1,1.005740,-10.867205,'WELLFORD',138.0000,   1
     26, 1,    21.663,     5.777,  0.000000,  0.000000,   1,1.005440,-10.906604,'WELLFORD',138.0000,   1
     27, 1,     0.000,   -50.921,  0.000000,  0.000000,   1,1.009170,-16.635605,'LAURENS ',138.0000,   1
     28, 1,    62.931,    16.782,  0.000000,  0.000000,   1,1.008080,-16.769508,'LAURENS ',138.0000,   1
     29, 1,     0.000,     0.000,  0.000000,  0.000000,   1,1.004230,-14.656605,'COLUMBIA',138.0000,   2
     30, 1,    99.972,    26.659,  0.000000,  0.000000,   1,1.002740,-14.834906,'COLUMBIA',138.0000,   2
     31, 1,     0.000,  -106.357,  0.000000,  0.000000,   1,1.031300,-17.119108,'WINDSOR ',138.0000,   2
     32, 1,     9.765,     2.604,  0.000000,  0.000000,   1,1.031150,-17.136208,'WINDSOR ',138.0000,   2
     33, 1,     0.000,     0.000,  0.000000,  0.000000,   1,1.004000,-15.283806,'PROSPERI',138.0000,   2
     34, 1,    24.999,     6.666,  0.000000,  0.000000,   1,1.003620,-15.328107,'PROSPERI',138.0000,   2
     35, 1,     0.000,     0.000,  0.000000,  0.000000,   1,1.016670,-15.948406,'NORTH AU',138.0000,   2
     36, 1,    43.350,    11.560,  0.000000,  0.000000,   1,1.016070,-16.017508,'NORTH AU',138.0000,   2
     37, 1,     0.000,     0.000,  0.000000,  0.000000,   1,1.018600,-0.928300,'LANDO 0 ',138.0000,   1
     38, 1,     0.129,     0.034,  0.000000,  0.000000,   1,1.018600,-0.928600,'LANDO 1 ',138.0000,   1
     39, 1,     0.000,     0.000,  0.000000,  0.000000,   1,1.026290,-7.830103,'GAFFNEY ',345.0000,   1
     40, 1,     0.000,     0.000,  0.000000,  0.000000,   1,1.019600,-9.046504,'GAFFNEY ',138.0000,   1
     41, 1,    57.990,    15.464,  0.000000,  0.000000,   1,1.018640,-9.166604,'GAFFNEY ',138.0000,   1
     42, 1,     0.000,     0.000,  0.000000,  0.000000,   1,1.023060,-13.684405,'CLARKS H',138.0000,   2
     43, 1,     4.461,     1.190,  0.000000,  0.000000,   1,1.023000,-13.691706,'CLARKS H',138.0000,   2
     44, 1,     0.000,     0.000,  0.000000,  0.000000,   1,1.016870,-9.814204,'JENKINSV',138.0000,   2
     45, 1,     2.031,     0.542,  0.000000,  0.000000,   1,1.016840,-9.818304,'JENKINSV',138.0000,   2
     46, 1,     0.000,     0.000,  0.000000,  0.000000,   1,0.993630,-13.271906,'WOODRUFF',138.0000,   1
     47, 1,    43.410,    11.576,  0.000000,  0.000000,   1,0.992960,-13.355005,'WOODRUFF',138.0000,   1
     48, 1,     0.000,     0.000,  0.000000,  0.000000,   1,0.998490,-17.836107,'IVA 0   ',138.0000,   1
     49, 1,    -1.300,    -0.606,  0.000000,  0.000000,   1,1.000350,-17.633007,'IVA 1   ', 13.8000,   1
     50, 1,    -2.600,    -1.212,  0.000000,  0.000000,   1,1.000650,-17.597208,'IVA 2   ', 13.8000,   1
     51, 1,     0.354,     0.094,  0.000000,  0.000000,   1,0.998490,-17.836807,'IVA 3   ',138.0000,   1
     52, 1,    23.388,     6.237,  0.000000,  0.000000,   1,0.998140,-17.878807,'IVA 4   ',138.0000,   1
     53, 1,     0.000,     0.000,  0.000000,  0.000000,   1,1.010040,-13.303205,'CAYCE 0 ',138.0000,   2
     54, 1,    34.809,     9.282,  0.000000,  0.000000,   1,1.009520,-13.359506,'CAYCE 1 ',138.0000,   2
     55, 1,     0.000,     0.000,  0.000000,  0.000000,   1,1.017580,-13.246305,'TROY 0  ',138.0000,   1
     56, 1,     2.253,     0.601,  0.000000,  0.000000,   1,1.017550,-13.250205,'TROY 1  ',138.0000,   1
     57, 1,     0.000,     0.000,  0.000000,  0.000000,   1,1.006930,-9.661804,'SIMPSONV',345.0000,   1
     58, 1,     0.000,     0.000,  0.000000,  0.000000,   1,0.997440,-12.505705,'SIMPSONV',138.0000,   1
     59, 1,   140.937,    37.583,  0.000000,  0.000000,   1,0.995100,-12.805406,'SIMPSONV',138.0000,   1
     60, 1,     0.000,     0.000,  0.000000,  0.000000,   1,1.015700,-9.611704,'MAYO 0  ',138.0000,   1
     61, 1,     0.204,     0.054,  0.000000,  0.000000,   1,1.015700,-9.612103,'MAYO 1  ',138.0000,   1
     62, 1,     0.000,     0.000,  0.000000,  0.000000,   1,1.004860,-11.952604,'BELTON 2',138.0000,   1
     63, 1,     0.000,     0.000,  0.000000,  0.000000,   1,1.004860,-11.952604,'BELTON 2', 13.8000,   1
     64, 1,    34.776,     9.274,  0.000000,  0.000000,   1,1.004330,-12.013704,'BELTON 2',138.0000,   1
     65, 1,     0.000,     0.000,  0.000000,  0.000000,   1,1.023840,-10.701704,'BRADLEY ',345.0000,   1
     66, 1,     0.000,     0.000,  0.000000,  0.000000,   1,1.019710,-12.405505,'BRADLEY ',138.0000,   1
     67, 1,     4.569,     1.218,  0.000000,  0.000000,   1,1.019640,-12.413506,'BRADLEY ',138.0000,   1
     68, 1,     0.000,     0.000,  0.000000,  0.000000,   1,1.006260,-13.621005,'ENOREE 0',138.0000,   1
     69, 1,    16.962,     4.523,  0.000000,  0.000000,   1,1.005970,-13.657704,'ENOREE 1',138.0000,   1
     70, 1,     0.000,     0.000,  0.000000,  0.000000,   1,0.991930,-14.919806,'HONEA PA',138.0000,   1
     71, 1,    -4.000,    -1.536,  0.000000,  0.000000,   1,0.992660,-14.816606,'HONEA PA', 13.8000,   1
     72, 1,    -2.000,    -0.768,  0.000000,  0.000000,   1,0.993100,-14.752706,'HONEA PA', 13.8000,   1
     73, 1,    -1.400,    -0.538,  0.000000,  0.000000,   1,0.993580,-14.701606,'HONEA PA', 13.8000,   1
     74, 1,     0.000,     0.000,  0.000000,  0.000000,   1,1.023750,-16.956608,'SPRINGFI',138.0000,   2
     75, 1,     5.301,     1.414,  0.000000,  0.000000,   1,1.023670,-16.965805,'SPRINGFI',138.0000,   2
     76, 1,     0.000,     0.000,  0.000000,  0.000000,   1,1.017130,-0.043700,'EDGEMOOR',138.0000,   1
     77, 1,     6.951,     1.854,  0.000000,  0.000000,   1,1.017020,-0.055700,'EDGEMOOR',138.0000,   1
     78, 1,     0.000,     0.000,  0.000000,  0.000000,   1,1.010620,-8.473504,'NEWRY 0 ',138.0000,   1
     79, 1,     0.381,     0.102,  0.000000,  0.000000,   1,1.010620,-8.474204,'NEWRY 1 ',138.0000,   1
     80, 1,     0.000,     0.000,  0.000000,  0.000000,   1,1.031020,-10.251904,'CLARKS H',345.0000,   2
     81, 1,     0.000,     0.000,  0.000000,  0.000000,   1,1.025160,-12.841605,'CLARKS H',138.0000,   2
     82, 2,     0.000,     0.000,  0.000000,  0.000000,   1,1.040000,-4.231002,'CLARKS H', 13.8000,   2
     83, 1,     0.000,     0.000,  0.000000,  0.000000,   1,1.002010,-15.681107,'NEWBERRY',138.0000,   2
     84, 1,    61.407,    16.375,  0.000000,  0.000000,   1,1.001020,-15.803406,'NEWBERRY',138.0000,   2
     85, 1,     0.000,     0.000,  0.000000,  0.000000,   1,1.024840,-15.932508,'AIKEN 3 ',138.0000,   2
     86, 1,    17.592,     4.691,  0.000000,  0.000000,   1,1.024550,-15.968306,'AIKEN 3 ',138.0000,   2
     87, 1,     0.000,     0.000,  0.000000,  0.000000,   1,1.000510, 0.749900,'ROCK HIL',138.0000,   1
     88, 1,     5.253,     1.401,  0.000000,  0.000000,   1,1.000420, 0.739700,'ROCK HIL',138.0000,   1
     89, 1,     0.000,     0.000,  0.000000,  0.000000,   1,1.013410,-11.166305,'CAMERON ',138.0000,   2
     90, 1,     5.901,     1.574,  0.000000,  0.000000,   1,1.013320,-11.178505,'CAMERON ',138.0000,   2
     91, 1,     0.000,     0.000,  0.000000,  0.000000,   1,1.009780,-7.598104,'SENECA 2',138.0000,   1
     92, 1,    65.028,    17.341,  0.000000,  0.000000,   1,1.008790,-7.724803,'SENECA 2',138.0000,   1
     93, 1,     0.000,     0.000,  0.000000,  0.000000,   1,1.014270,-6.457202,'BLAIR 0 ',138.0000,   2
     94, 1,     5.214,     1.390,  0.000000,  0.000000,   1,1.014200,-6.466302,'BLAIR 1 ',138.0000,   2
     95, 1,     0.000,     0.000,  0.000000,  0.000000,   1,1.010180,-7.565603,'WALHALLA',138.0000,   1
     96, 1,    33.999,     9.066,  0.000000,  0.000000,   1,1.009700,-7.624903,'WALHALLA',138.0000,   1
     97, 1,     0.000,     0.000,  0.000000,  0.000000,   1,1.002000,-18.251608,'ANDERSON',138.0000,   1
     98, 1,    37.092,     9.891,  0.000000,  0.000000,   1,1.001390,-18.332808,'ANDERSON',138.0000,   1
     99, 1,     0.000,     0.000,  0.000000,  0.000000,   1,1.018610,-9.195603,'PACOLET ',138.0000,   1
    100, 1,    13.521,     3.606,  0.000000,  0.000000,   1,1.018390,-9.221404,'PACOLET ',138.0000,   1
    101, 1,     0.891,     0.238,  0.000000,  0.000000,   1,1.018590,-9.197204,'PACOLET ',138.0000,   1
    102, 1,     0.000,     0.000,  0.000000,  0.000000,   1,1.000890,-16.682205,'ABBEVILL',138.0000,   1
    103, 1,    38.802,    10.347,  0.000000,  0.000000,   1,1.000250,-16.764606,'ABBEVILL',138.0000,   1
    104, 1,     0.000,     0.000,  0.000000,  0.000000,   1,1.017260,-17.521307,'AIKEN 2 ',138.0000,   2
    105, 1,    80.334,    21.422,  0.000000,  0.000000,   1,1.015930,-17.680408,'AIKEN 2 ',138.0000,   2
    106, 1,     0.000,     0.000,  0.000000,  0.000000,   1,1.019010,-14.839807,'JOHNSTON',138.0000,   2
    107, 1,    16.005,     4.268,  0.000000,  0.000000,   1,1.018790,-14.866707,'JOHNSTON',138.0000,   2
    108, 1,     0.000,     0.000,  0.000000,  0.000000,   1,1.011160,-10.137303,'SPARTANB',138.0000,   1
    109, 1,    47.583,    12.689,  0.000000,  0.000000,   1,1.010470,-10.212904,'SPARTANB',138.0000,   1
    110, 1,     0.000,   -52.573,  0.000000,  0.000000,   1,1.025400,-4.926702,'GAFFNEY ',138.0000,   1
    111, 1,    62.289,    16.610,  0.000000,  0.000000,   1,1.024480,-5.047902,'GAFFNEY ',138.0000,   1
    112, 1,     0.000,     0.000,  0.000000,  0.000000,   1,1.011990,-13.821005,'LEESVILL',138.0000,   2
    113, 1,    45.990,    12.264,  0.000000,  0.000000,   1,1.011320,-13.896906,'LEESVILL',138.0000,   2
    114, 1,     0.000,     0.000,  0.000000,  0.000000,   1,1.018080,-16.355606,'LANGLEY ',138.0000,   2
    115, 1,     5.061,     1.350,  0.000000,  0.000000,   1,1.018010,-16.364605,'LANGLEY ',138.0000,   2
    116, 1,     3.099,     0.826,  0.000000,  0.000000,   1,1.018040,-16.361208,'LANGLEY ',138.0000,   2
    117, 1,     0.000,     0.000,  0.000000,  0.000000,   1,1.001750,-13.985005,'DONALDS ',138.0000,   1
    118, 1,     8.832,     2.355,  0.000000,  0.000000,   1,1.001600,-14.003606,'DONALDS ',138.0000,   1
    119, 1,     0.000,     0.000,  0.000000,  0.000000,   1,0.979360,-15.477007,'GREENVIL',138.0000,   1
    120, 1,    31.650,     8.440,  0.000000,  0.000000,   1,0.978910,-15.532005,'GREENVIL',138.0000,   1
    121, 1,     0.000,     0.000,  0.000000,  0.000000,   1,1.005310,-14.027406,'COLUMBIA',138.0000,   2
    122, 1,    53.364,    14.230,  0.000000,  0.000000,   1,1.004460,-14.139405,'COLUMBIA',138.0000,   2
    123, 1,     0.000,     0.000,  0.000000,  0.000000,   1,1.028280,-3.758401,'SALEM 3 ',345.0000,   1
    124, 1,     0.000,     0.000,  0.000000,  0.000000,   1,1.025550,-4.464202,'SALEM 3 ',138.0000,   1
    125, 2,     0.000,     0.000,  0.000000,  0.000000,   1,1.028280,-3.758401,'SALEM 3 ', 13.8000,   1
    126, 2,     0.000,     0.000,  0.000000,  0.000000,   1,1.028280,-3.758401,'SALEM 3 ', 13.8000,   1
    127, 2,     0.000,     0.000,  0.000000,  0.000000,   1,1.040000, 0.398300,'SALEM 3 ', 13.8000,   1
    128, 2,     0.000,     0.000,  0.000000,  0.000000,   1,1.037740,-2.384901,'SALEM 3 ', 13.8000,   1
    129, 1,     0.000,     0.000,  0.000000,  0.000000,   1,0.978110,-16.000906,'GREENVIL',138.0000,   1
    130, 1,   103.242,    27.531,  0.000000,  0.000000,   1,0.976460,-16.188807,'GREENVIL',138.0000,   1
    131, 1,     0.000,     0.000,  0.000000,  0.000000,   1,1.016550,-9.481503,'COWPENS ',138.0000,   1
    132, 1,    25.203,     6.721,  0.000000,  0.000000,   1,1.016140,-9.529504,'COWPENS ',138.0000,   1
    133, 1,     0.000,     0.000,  0.000000,  0.000000,   1,1.010930,-7.524303,'WESTMINS',138.0000,   1
    134, 1,    42.645,    11.372,  0.000000,  0.000000,   1,1.010360,-7.594803,'WESTMINS',138.0000,   1
    135, 1,     0.000,     0.000,  0.000000,  0.000000,   1,1.009450,-11.359204,'SAINT MA',138.0000,   2
    136, 1,    26.757,     7.135,  0.000000,  0.000000,   1,1.009040,-11.412105,'SAINT MA',138.0000,   2
    137, 1,     0.000,     0.000,  0.000000,  0.000000,   1,1.004380,-14.101906,'GREENWOO',138.0000,   1
    138, 1,    78.705,    20.988,  0.000000,  0.000000,   1,1.003140,-14.264806,'GREENWOO',138.0000,   1
    139, 1,     0.000,     0.000,  0.000000,  0.000000,   1,1.011240,-10.148404,'FINGERVI',138.0000,   1
    140, 1,     0.255,     0.068,  0.000000,  0.000000,   1,1.011240,-10.148804,'FINGERVI',138.0000,   1
    141, 1,     0.000,   -49.992,  0.000000,  0.000000,   1,0.999920,-2.518601,'ROCK HIL',138.0000,   1
    142, 1,   161.343,    43.025,  0.000000,  0.000000,   1,0.997320,-2.818401,'ROCK HIL',138.0000,   1
    143, 1,     0.000,     0.000,  0.000000,  0.000000,   1,1.018480, 6.490602,'YORK 2 0',138.0000,   1
    144, 2,     0.000,     0.000,  0.000000,  0.000000,   1,1.040000,19.027407,'YORK 2 1', 13.8000,   1
    145, 2,     0.000,     0.000,  0.000000,  0.000000,   1,1.040000, 9.189404,'YORK 2 2', 13.8000,   1
    146, 1,     0.000,     0.000,  0.000000,  0.000000,   1,1.027270,-7.906603,'CHAPIN 0',345.0000,   2
    147, 1,     0.000,     0.000,  0.000000,  0.000000,   1,1.015730,-8.585003,'CHAPIN 1',138.0000,   2
    148, 1,    57.420,    15.312,  0.000000,  0.000000,   1,1.014790,-8.705603,'CHAPIN 2',138.0000,   2
    149, 1,     0.000,     0.000,  0.000000,  0.000000,   1,1.020900,-13.778806,'MODOC 0 ',138.0000,   2
    150, 1,     1.503,     0.401,  0.000000,  0.000000,   1,1.020880,-13.781705,'MODOC 1 ',138.0000,   2
    151, 1,     0.000,     0.000,  0.000000,  0.000000,   1,1.023620,-8.053903,'SPARTANB',345.0000,   1
    152, 1,     0.000,   -30.907,  0.000000,  0.000000,   1,1.015010,-10.476705,'SPARTANB',138.0000,   1
    153, 1,    93.153,    24.841,  0.000000,  0.000000,   1,1.013750,-10.630804,'SPARTANB',138.0000,   1
    154, 1,     0.000,     0.000,  0.000000,  0.000000,   1,1.005400,-11.032205,'BOILING ',138.0000,   1
    155, 1,    66.843,    17.825,  0.000000,  0.000000,   1,1.004510,-11.140804,'BOILING ',138.0000,   1
    156, 1,     0.000,     0.000,  0.000000,  0.000000,   1,0.981400,-14.726106,'GREENVIL',138.0000,   1
    157, 1,   105.453,    28.121,  0.000000,  0.000000,   1,0.979720,-14.941006,'GREENVIL',138.0000,   1
    158, 1,     0.000,     0.000,  0.000000,  0.000000,   1,1.005790,-13.592606,'PELION 0',138.0000,   2
    159, 1,    22.851,     6.094,  0.000000,  0.000000,   1,1.005420,-13.640706,'PELION 1',138.0000,   2
    160, 1,     0.000,     0.000,  0.000000,  0.000000,   1,1.019070,-15.101106,'GRANITEV',138.0000,   2
    161, 1,    25.953,     6.921,  0.000000,  0.000000,   1,1.018690,-15.150105,'GRANITEV',138.0000,   2
    162, 1,     0.000,     0.000,  0.000000,  0.000000,   1,1.027500,-7.868104,'IRMO 0  ',345.0000,   2
    163, 1,     0.000,     0.000,  0.000000,  0.000000,   1,1.023630,-8.650904,'IRMO 1  ',138.0000,   2
    164, 1,    98.151,    26.174,  0.000000,  0.000000,   1,1.021980,-8.855903,'IRMO 2  ',138.0000,   2
    165, 1,     0.000,     0.000,  0.000000,  0.000000,   1,1.028730,-3.404202,'SALEM 2 ',345.0000,   1
    166, 1,     0.000,     0.000,  0.000000,  0.000000,   1,1.021670,-4.973802,'SALEM 2 ',138.0000,   1
    167, 2,     0.000,     0.000,  0.000000,  0.000000,   1,1.040000,-1.181800,'SALEM 2 ', 13.8000,   1
    168, 2,     0.000,     0.000,  0.000000,  0.000000,   1,1.040000, 0.270100,'SALEM 2 ', 13.8000,   1
    169, 2,     0.000,     0.000,  0.000000,  0.000000,   1,1.040000, 1.893901,'SALEM 2 ', 13.8000,   1
    170, 1,     0.000,     0.000,  0.000000,  0.000000,   1,1.009700,-7.704103,'WEST UNI',138.0000,   1
    171, 1,    12.375,     3.300,  0.000000,  0.000000,   1,1.009510,-7.729403,'WEST UNI',138.0000,   1
    172, 1,     0.000,     0.000,  0.000000,  0.000000,   1,1.002780,-12.849606,'CROSS HI',138.0000,   1
    173, 1,     3.135,     0.836,  0.000000,  0.000000,   1,1.002730,-12.854905,'CROSS HI',138.0000,   1
    174, 1,     7.305,     1.948,  0.000000,  0.000000,   1,1.002680,-12.861605,'CROSS HI',138.0000,   1
    175, 1,     0.000,     0.000,  0.000000,  0.000000,   1,1.033040,-3.568202,'FORT LAW',345.0000,   1
    176, 1,     0.000,     0.000,  0.000000,  0.000000,   1,1.022210,-2.739901,'FORT LAW',138.0000,   1
    177, 1,     8.781,     2.342,  0.000000,  0.000000,   1,1.022080,-2.756801,'FORT LAW',138.0000,   1
    178, 1,     6.813,     1.817,  0.000000,  0.000000,   1,1.022110,-2.751001,'FORT LAW',138.0000,   1
    179, 1,     0.000,     0.000,  0.000000,  0.000000,   1,0.998760,-14.828306,'NORTH 0 ',138.0000,   2
    180, 1,    14.136,     3.770,  0.000000,  0.000000,   1,0.998540,-14.853605,'NORTH 1 ',138.0000,   2
    181, 1,     0.000,   -61.033,  0.000000,  0.000000,   1,1.008570,-18.046705,'ANDERSON',138.0000,   1
    182, 1,    82.614,    22.030,  0.000000,  0.000000,   1,1.007240,-18.211908,'ANDERSON',138.0000,   1
    183, 1,     0.000,     0.000,  0.000000,  0.000000,   1,1.022400,-6.683503,'BLACKSBU',138.0000,   1
    184, 1,    30.177,     8.047,  0.000000,  0.000000,   1,1.022000,-6.730902,'BLACKSBU',138.0000,   1
    185, 1,     0.000,     0.000,  0.000000,  0.000000,   1,1.007380,-9.285304,'LIBERTY ',138.0000,   1
    186, 1,    45.348,    12.093,  0.000000,  0.000000,   1,1.006760,-9.360003,'LIBERTY ',138.0000,   1
    187, 1,     0.000,     0.000,  0.000000,  0.000000,   1,1.012690,-11.555705,'ELLOREE ',138.0000,   2
    188, 1,    11.049,     2.946,  0.000000,  0.000000,   1,1.012520,-11.574005,'ELLOREE ',138.0000,   2
    189, 1,     0.000,     0.000,  0.000000,  0.000000,   1,1.026600,-17.242706,'WAGENER ',138.0000,   2
    190, 1,    14.070,     3.752,  0.000000,  0.000000,   1,1.026390,-17.264305,'WAGENER ',138.0000,   2
    191, 1,     0.000,     0.000,  0.000000,  0.000000,   1,1.018520,-15.828607,'TRENTON ',138.0000,   2
    192, 1,    16.440,     4.384,  0.000000,  0.000000,   1,1.018250,-15.861207,'TRENTON ',138.0000,   2
    193, 1,     0.000,     0.000,  0.000000,  0.000000,   1,1.013400,-14.308506,'BATESBUR',138.0000,   2
    194, 1,    28.695,     7.652,  0.000000,  0.000000,   1,1.012920,-14.366405,'BATESBUR',138.0000,   2
    195, 1,     0.000,     0.000,  0.000000,  0.000000,   1,1.027610,-7.896603,'COLUMBIA',345.0000,   2
    196, 1,     0.000,     0.000,  0.000000,  0.000000,   1,1.018100,-10.158403,'COLUMBIA',138.0000,   2
    197, 2,     0.000,     0.000,  0.000000,  0.000000,   1,1.040000,-3.023601,'COLUMBIA', 13.8000,   2
    198, 2,     0.000,     0.000,  0.000000,  0.000000,   1,1.040000,-5.479902,'COLUMBIA', 13.8000,   2
    199, 1,    86.394,    23.038,  0.000000,  0.000000,   1,1.016750,-10.307904,'COLUMBIA',138.0000,   2
    200, 1,     0.000,     0.000,  0.000000,  0.000000,   1,1.019190,-9.413004,'LITTLE M',138.0000,   2
...
0 / END OF GENERATOR DATA, BEGIN BRANCH DATA
      1,     -2,'1 ',  0.00053,  0.00314,  0.00000,  76.50,   0.00,   0.00,0.00000,000.000, 0.00000, 0.00000, 0.00000, 0.00000, 1
      1,    -44,'1 ',  0.00548,  0.05026,  0.01781, 320.29,   0.00,   0.00,0.00000,000.000, 0.00000, 0.00000, 0.00000, 0.00000, 1
      1,   -421,'1 ',  0.00537,  0.05156,  0.01664, 320.29,   0.00,   0.00,0.00000,000.000, 0.00000, 0.00000, 0.00000, 0.00000, 1
      3,     -4,'1 ',  0.00069,  0.00352,  0.00000, 225.06,   0.00,   0.00,0.00000,000.000, 0.00000, 0.00000, 0.00000, 0.00000, 1
      3,    -62,'1 ',  0.00272,  0.02610,  0.00842, 320.29,   0.00,   0.00,0.00000,000.000, 0.00000, 0.00000, 0.00000, 0.00000, 1
      3,    479,'1 ',  0.00726,  0.06970,  0.02250, 320.29,   0.00,   0.00,0.00000,000.000, 0.00000, 0.00000, 0.00000, 0.00000, 1
      5,     -6,'1 ',  0.00056,  0.00356,  0.00000,   4.49,   0.00,   0.00,0.00000,000.000, 0.00000, 0.00000, 0.00000, 0.00000, 1
      5,   -316,'1 ',  0.00245,  0.02348,  0.00758, 320.29,   0.00,   0.00,0.00000,000.000, 0.00000, 0.00000, 0.00000, 0.00000, 1
      5,   -401,'1 ',  0.00489,  0.04692,  0.01515, 320.29,   0.00,   0.00,0.00000,000.000, 0.00000, 0.00000, 0.00000, 0.00000, 1
      7,    232,'1 ',  0.00112,  0.01481,  0.31205,1493.89,   0.00,   0.00,0.00000,000.000, 0.00000, 0.00000, 0.00000, 0.00000, 1
      7,    262,'1 ',  0.00095,  0.01375,  0.23994,1493.89,   0.00,   0.00,0.00000,000.000, 0.00000, 0.00000, 0.00000, 0.00000, 1
      8,      7,'1 ',  0.00036,  0.01290,  0.00000, 567.00,   0.00,   0.00,1.000000,0.000000,0.000000,0.000000,00.00000,00.00000, 1
      8,    287,'1 ',  0.00373,  0.03579,  0.01155, 320.29,   0.00,   0.00,0.00000,000.000, 0.00000, 0.00000, 0.00000, 0.00000, 1
      8,    457,'1 ',  0.00197,  0.01895,  0.00612, 320.29,   0.00,   0.00,0.00000,000.000, 0.00000, 0.00000, 0.00000, 0.00000, 1
      9,      7,'1 ',  0.00012,  0.01362,  0.00000, 680.00,   0.00,   0.00,1.000000,0.000000,0.000000,0.000000,00.00000,00.00000, 1
      9,      7,'2 ',  0.00012,  0.01362,  0.00000, 680.00,   0.00,   0.00,1.000000,0.000000,0.000000,0.000000,00.00000,00.00000, 1
     10,    -11,'1 ',  0.00065,  0.00320,  0.00000,   3.96,   0.00,   0.00,0.00000,000.000, 0.00000, 0.00000, 0.00000, 0.00000, 1
     10,   -342,'1 ',  0.00282,  0.02712,  0.00876, 320.29,   0.00,   0.00,0.00000,000.000, 0.00000, 0.00000, 0.00000, 0.00000, 1
     10,    349,'1 ',  0.00140,  0.01346,  0.00434, 320.29,   0.00,   0.00,0.00000,000.000, 0.00000, 0.00000, 0.00000, 0.00000, 1
     12,    -13,'1 ',  0.00062,  0.00313,  0.00000,  65.50,   0.00,   0.00,0.00000,000.000, 0.00000, 0.00000, 0.00000, 0.00000, 1
     12,    216,'1 ',  0.00396,  0.03805,  0.01228, 320.29,   0.00,   0.00,0.00000,000.000, 0.00000, 0.00000, 0.00000, 0.00000, 1
     12,    304,'1 ',  0.00231,  0.02119,  0.00751, 320.29,   0.00,   0.00,0.00000,000.000, 0.00000, 0.00000, 0.00000, 0.00000, 1
     12,    441,'1 ',  0.00156,  0.01503,  0.00485, 320.29,   0.00,   0.00,0.00000,000.000, 0.00000, 0.00000, 0.00000, 0.00000, 1
     14,   -386,'1 ',  0.00032,  0.00455,  0.08136,1493.89,   0.00,   0.00,0.00000,000.000, 0.00000, 0.00000, 0.00000, 0.00000, 1
     14,   -386,'2 ',  0.00032,  0.00455,  0.08136,1493.90,   0.00,   0.00,0.00000,000.000, 0.00000, 0.00000, 0.00000, 0.00000, 1
     15,     14,'1 ',  0.00021,  0.01122,  0.00000, 682.00,   0.00,   0.00,1.000000,0.000000,0.000000,0.000000,00.00000,00.00000, 1
     15,     91,'1 ',  0.00480,  0.04609,  0.01488, 320.29,   0.00,   0.00,0.00000,000.000, 0.00000, 0.00000, 0.00000, 0.00000, 1
     15,    230,'1 ',  0.01089,  0.10461,  0.03377, 320.29,   0.00,   0.00,0.00000,000.000, 0.00000, 0.00000, 0.00000, 0.00000, 1
     15,   -367,'1 ',  0.00192,  0.01842,  0.00594, 320.29,   0.00,   0.00,0.00000,000.000, 0.00000, 0.00000, 0.00000, 0.00000, 1
     15,    369,'1 ',  0.00185,  0.01701,  0.00603, 320.29,   0.00,   0.00,0.00000,000.000, 0.00000, 0.00000, 0.00000, 0.00000, 1
     15,    473,'1 ',  0.00922,  0.08462,  0.02999, 320.29,   0.00,   0.00,0.00000,000.000, 0.00000, 0.00000, 0.00000, 0.00000, 1
     16,     14,'1 ',  0.00033,  0.01202,  0.00000, 596.00,   0.00,   0.00,1.000000,0.000000,0.000000,0.000000,00.00000,00.00000, 1
     17,     14,'1 ',  0.00028,  0.01438,  0.00000, 674.00,   0.00,   0.00,1.000000,0.000000,0.000000,0.000000,00.00000,00.00000, 1
     17,     14,'2 ',  0.00035,  0.01438,  0.00000, 674.00,   0.00,   0.00,1.000000,0.000000,0.000000,0.000000,00.00000,00.00000, 1
     18,     14,'1 ',  0.00142,  0.05115,  0.00000, 340.00,   0.00,   0.00,1.000000,0.000000,0.000000,0.000000,00.00000,00.00000, 1
     19,    -20,'1 ',  0.00054,  0.00389,  0.00000,   7.53,   0.00,   0.00,0.00000,000.000, 0.00000, 0.00000, 0.00000, 0.00000, 1
     19,    112,'1 ',  0.00472,  0.04534,  0.01464, 320.29,   0.00,   0.00,0.00000,000.000, 0.00000, 0.00000, 0.00000, 0.00000, 1
     19,   -193,'1 ',  0.00222,  0.02132,  0.00688, 320.29,   0.00,   0.00,0.00000,000.000, 0.00000, 0.00000, 0.00000, 0.00000, 1
     19,    272,'1 ',  0.00229,  0.02202,  0.00711, 320.29,   0.00,   0.00,0.00000,000.000, 0.00000, 0.00000, 0.00000, 0.00000, 1
     21,    -22,'1 ',  0.00059,  0.00317,  0.00000, 254.15,   0.00,   0.00,0.00000,000.000, 0.00000, 0.00000, 0.00000, 0.00000, 1
     21,    112,'1 ',  0.00509,  0.04890,  0.01578, 320.29,   0.00,   0.00,0.00000,000.000, 0.00000, 0.00000, 0.00000, 0.00000, 1
     21,    196,'1 ',  0.00221,  0.02025,  0.00718, 320.29,   0.00,   0.00,0.00000,000.000, 0.00000, 0.00000, 0.00000, 0.00000, 1
     23,   -151,'1 ',  0.00018,  0.00261,  0.04665,1493.89,   0.00,   0.00,0.00000,000.000, 0.00000, 0.00000, 0.00000, 0.00000, 1
     23,    386,'1 ',  0.00164,  0.02385,  0.41623,1493.89,   0.00,   0.00,0.00000,000.000, 0.00000, 0.00000, 0.00000, 0.00000, 1
     23,    464,'1 ',  0.00095,  0.01253,  0.26410,1493.89,   0.00,   0.00,0.00000,000.000, 0.00000, 0.00000, 0.00000, 0.00000, 1
     23,    471,'1 ',  0.00053,  0.00704,  0.14837,1493.89,   0.00,   0.00,0.00000,000.000, 0.00000, 0.00000, 0.00000, 0.00000, 1
     24,     23,'1 ',  0.00033,  0.01764,  0.00000, 626.00,   0.00,   0.00,1.000000,0.000000,0.000000,0.000000,00.00000,00.00000, 1
     24,    -25,'1 ',  0.00061,  0.00363,  0.00000,   3.56,   0.00,   0.00,0.00000,000.000, 0.00000, 0.00000, 0.00000, 0.00000, 1
     24,    -26,'1 ',  0.00056,  0.00373,  0.00000,  29.46,   0.00,   0.00,0.00000,000.000, 0.00000, 0.00000, 0.00000, 0.00000, 1
     24,   -210,'1 ',  0.00222,  0.02034,  0.00721, 320.29,   0.00,   0.00,0.00000,000.000, 0.00000, 0.00000, 0.00000, 0.00000, 1
     24,    360,'1 ',  0.00237,  0.02271,  0.00733, 320.29,   0.00,   0.00,0.00000,000.000, 0.00000, 0.00000, 0.00000, 0.00000, 1
     27,    -28,'1 ',  0.00069,  0.00396,  0.00000, 108.61,   0.00,   0.00,0.00000,000.000, 0.00000, 0.00000, 0.00000, 0.00000, 1
     27,     68,'1 ',  0.00561,  0.05384,  0.01738, 320.29,   0.00,   0.00,0.00000,000.000, 0.00000, 0.00000, 0.00000, 0.00000, 1
     27,    382,'1 ',  0.00337,  0.03091,  0.01095, 320.29,   0.00,   0.00,0.00000,000.000, 0.00000, 0.00000, 0.00000, 0.00000, 1
     29,    -30,'1 ',  0.00062,  0.00330,  0.00000, 156.98,   0.00,   0.00,0.00000,000.000, 0.00000, 0.00000, 0.00000, 0.00000, 1
     29,   -454,'1 ',  0.00247,  0.02266,  0.00803, 320.29,   0.00,   0.00,0.00000,000.000, 0.00000, 0.00000, 0.00000, 0.00000, 1
     29,    491,'1 ',  0.00561,  0.05384,  0.01738, 320.29,   0.00,   0.00,0.00000,000.000, 0.00000, 0.00000, 0.00000, 0.00000, 1
     31,    -32,'1 ',  0.00063,  0.00343,  0.00000,  15.70,   0.00,   0.00,0.00000,000.000, 0.00000, 0.00000, 0.00000, 0.00000, 1
     31,     85,'1 ',  0.00530,  0.05093,  0.01644, 320.29,   0.00,   0.00,0.00000,000.000, 0.00000, 0.00000, 0.00000, 0.00000, 1
     31,   -104,'1 ',  0.00553,  0.05306,  0.01713, 320.29,   0.00,   0.00,0.00000,000.000, 0.00000, 0.00000, 0.00000, 0.00000, 1
     31,    189,'1 ',  0.00571,  0.05480,  0.01769, 320.29,   0.00,   0.00,0.00000,000.000, 0.00000, 0.00000, 0.00000, 0.00000, 1
     31,    205,'1 ',  0.00780,  0.07487,  0.02417, 320.29,   0.00,   0.00,0.00000,000.000, 0.00000, 0.00000, 0.00000, 0.00000, 1
     31,    218,'1 ',  0.00827,  0.07945,  0.02565, 320.29,   0.00,   0.00,0.00000,000.000, 0.00000, 0.00000, 0.00000, 0.00000, 1
     31,   -267,'1 ',  0.00490,  0.04702,  0.01518, 320.29,   0.00,   0.00,0.00000,000.000, 0.00000, 0.00000, 0.00000, 0.00000, 1
     33,    -34,'1 ',  0.00062,  0.00328,  0.00000,  43.35,   0.00,   0.00,0.00000,000.000, 0.00000, 0.00000, 0.00000, 0.00000, 1
     33,    -83,'1 ',  0.00529,  0.05076,  0.01639, 320.29,   0.00,   0.00,0.00000,000.000, 0.00000, 0.00000, 0.00000, 0.00000, 1
     33,   -112,'1 ',  0.00706,  0.06781,  0.02189, 320.29,   0.00,   0.00,0.00000,000.000, 0.00000, 0.00000, 0.00000, 0.00000, 1
     35,    -36,'1 ',  0.00058,  0.00303,  0.00000,  62.87,   0.00,   0.00,0.00000,000.000, 0.00000, 0.00000, 0.00000, 0.00000, 1
     35,   -191,'1 ',  0.00404,  0.03704,  0.01313, 320.29,   0.00,   0.00,0.00000,000.000, 0.00000, 0.00000, 0.00000, 0.00000, 1
     35,    399,'1 ',  0.00564,  0.05412,  0.01747, 320.29,   0.00,   0.00,0.00000,000.000, 0.00000, 0.00000, 0.00000, 0.00000, 1
     37,    -38,'1 ',  0.00055,  0.00382,  0.00000,   0.18,   0.00,   0.00,0.00000,000.000, 0.00000, 0.00000, 0.00000, 0.00000, 1
     37,    -76,'1 ',  0.00147,  0.01416,  0.00457, 320.29,   0.00,   0.00,0.00000,000.000, 0.00000, 0.00000, 0.00000, 0.00000, 1
     37,    176,'1 ',  0.00304,  0.02918,  0.00942, 320.29,   0.00,   0.00,0.00000,000.000, 0.00000, 0.00000, 0.00000, 0.00000, 1
     39,    332,'1 ',  0.00040,  0.00579,  0.10355,1493.89,   0.00,   0.00,0.00000,000.000, 0.00000, 0.00000, 0.00000, 0.00000, 1
     39,    428,'1 ',  0.00052,  0.00690,  0.14538,1493.89,   0.00,   0.00,0.00000,000.000, 0.00000, 0.00000, 0.00000, 0.00000, 1
     40,     39,'1 ',  0.00070,  0.02531,  0.00000, 428.00,   0.00,   0.00,1.000000,0.000000,0.000000,0.000000,00.00000,00.00000, 1
     40,    -41,'1 ',  0.00063,  0.00392,  0.00000,  97.47,   0.00,   0.00,0.00000,000.000, 0.00000, 0.00000, 0.00000, 0.00000, 1
     40,    131,'1 ',  0.00291,  0.02668,  0.00946, 320.29,   0.00,   0.00,0.00000,000.000, 0.00000, 0.00000, 0.00000, 0.00000, 1
     42,    -43,'1 ',  0.00054,  0.00312,  0.00000,   7.70,   0.00,   0.00,0.00000,000.000, 0.00000, 0.00000, 0.00000, 0.00000, 1
     42,    -81,'1 ',  0.00236,  0.02166,  0.00768, 320.29,   0.00,   0.00,0.00000,000.000, 0.00000, 0.00000, 0.00000, 0.00000, 1
     42,    191,'1 ',  0.00637,  0.05842,  0.02070, 320.29,   0.00,   0.00,0.00000,000.000, 0.00000, 0.00000, 0.00000, 0.00000, 1
     44,    -45,'1 ',  0.00064,  0.00388,  0.00000,   2.84,   0.00,   0.00,0.00000,000.000, 0.00000, 0.00000, 0.00000, 0.00000, 1
     44,    200,'1 ',  0.00211,  0.01931,  0.00684, 320.29,   0.00,   0.00,0.00000,000.000, 0.00000, 0.00000, 0.00000, 0.00000, 1
     46,    -47,'1 ',  0.00060,  0.00345,  0.00000,  63.00,   0.00,   0.00,0.00000,000.000, 0.00000, 0.00000, 0.00000, 0.00000, 1
     46,    156,'1 ',  0.00661,  0.06348,  0.02049, 320.29,   0.00,   0.00,0.00000,000.000, 0.00000, 0.00000, 0.00000, 0.00000, 1
     46,   -238,'1 ',  0.00313,  0.03009,  0.00971, 320.29,   0.00,   0.00,0.00000,000.000, 0.00000, 0.00000, 0.00000, 0.00000, 1
     48,    -51,'1 ',  0.00066,  0.00367,  0.00000,   0.56,   0.00,   0.00,0.00000,000.000, 0.00000, 0.00000, 0.00000, 0.00000, 1
     48,    -52,'1 ',  0.00062,  0.00334,  0.00000,  37.95,   0.00,   0.00,0.00000,000.000, 0.00000, 0.00000, 0.00000, 0.00000, 1
     48,   -358,'1 ',  0.00450,  0.04128,  0.01463, 320.29,   0.00,   0.00,0.00000,000.000, 0.00000, 0.00000, 0.00000, 0.00000, 1
     48,   -419,'1 ',  0.00464,  0.04453,  0.01437, 320.29,   0.00,   0.00,0.00000,000.000, 0.00000, 0.00000, 0.00000, 0.00000, 1
     49,     48,'1 ',  0.01331,  0.27853,  0.00000,  57.00,   0.00,   0.00,1.000000,0.000000,0.000000,0.000000,00.00000,00.00000, 1
     50,     48,'1 ',  0.00715,  0.16356,  0.00000,  70.00,   0.00,   0.00,1.000000,0.000000,0.000000,0.000000,00.00000,00.00000, 1
     53,    -54,'1 ',  0.00068,  0.00306,  0.00000,  51.27,   0.00,   0.00,0.00000,000.000, 0.00000, 0.00000, 0.00000, 0.00000, 1
     53,   -233,'1 ',  0.00236,  0.02167,  0.00768, 320.29,   0.00,   0.00,0.00000,000.000, 0.00000, 0.00000, 0.00000, 0.00000, 1
     53,    276,'1 ',  0.00150,  0.01442,  0.00466, 320.29,   0.00,   0.00,0.00000,000.000, 0.00000, 0.00000, 0.00000, 0.00000, 1
     55,    -56,'1 ',  0.00064,  0.00331,  0.00000,   3.15,   0.00,   0.00,0.00000,000.000, 0.00000, 0.00000, 0.00000, 0.00000, 1
     55,     66,'1 ',  0.00433,  0.04157,  0.01342, 320.29,   0.00,   0.00,0.00000,000.000, 0.00000, 0.00000, 0.00000, 0.00000, 1
     55,    500,'1 ',  0.00448,  0.04110,  0.01457, 320.29,   0.00,   0.00,0.00000,000.000, 0.00000, 0.00000, 0.00000, 0.00000, 1
     57,    123,'1 ',  0.00168,  0.02443,  0.42627,1493.89,   0.00,   0.00,0.00000,000.000, 0.00000, 0.00000, 0.00000, 0.00000, 1
     57,   -440,'1 ',  0.00060,  0.00873,  0.15227,1493.89,   0.00,   0.00,0.00000,000.000, 0.00000, 0.00000, 0.00000, 0.00000, 1
     58,     57,'1 ',  0.00012,  0.01762,  0.00000, 675.00,   0.00,   0.00,1.000000,0.000000,0.000000,0.000000,00.00000,00.00000, 1
     58,     57,'2 ',  0.00012,  0.01762,  0.00000, 675.00,   0.00,   0.00,1.000000,0.000000,0.000000,0.000000,00.00000,00.00000, 1
     58,    -59,'1 ',  0.00062,  0.00385,  0.00000, 252.93,   0.00,   0.00,0.00000,000.000, 0.00000, 0.00000, 0.00000, 0.00000, 1
     58,    253,'1 ',  0.00453,  0.04352,  0.01405, 320.29,   0.00,   0.00,0.00000,000.000, 0.00000, 0.00000, 0.00000, 0.00000, 1
     58,   -322,'1 ',  0.00202,  0.01939,  0.00626, 320.29,   0.00,   0.00,0.00000,000.000, 0.00000, 0.00000, 0.00000, 0.00000, 1
     58,   -322,'2 ',  0.00202,  0.01939,  0.00626, 320.30,   0.00,   0.00,0.00000,000.000, 0.00000, 0.00000, 0.00000, 0.00000, 1
     60,    -61,'1 ',  0.00053,  0.00352,  0.00000,   0.32,   0.00,   0.00,0.00000,000.000, 0.00000, 0.00000, 0.00000, 0.00000, 1
     60,    131,'1 ',  0.00198,  0.01821,  0.00645, 320.29,   0.00,   0.00,0.00000,000.000, 0.00000, 0.00000, 0.00000, 0.00000, 1
     60,   -466,'1 ',  0.00201,  0.01931,  0.00623, 320.29,   0.00,   0.00,0.00000,000.000, 0.00000, 0.00000, 0.00000, 0.00000, 1
     62,    -64,'1 ',  0.00066,  0.00327,  0.00000,  45.58,   0.00,   0.00,0.00000,000.000, 0.00000, 0.00000, 0.00000, 0.00000, 1
     62,   -287,'1 ',  0.00545,  0.05236,  0.01690, 320.29,   0.00,   0.00,0.00000,000.000, 0.00000, 0.00000, 0.00000, 0.00000, 1
     62,    457,'1 ',  0.00727,  0.06979,  0.02253, 320.29,   0.00,   0.00,0.00000,000.000, 0.00000, 0.00000, 0.00000, 0.00000, 1
     63,     62,'1 ',  0.00320,  0.16353,  0.00000,  70.00,   0.00,   0.00,1.000000,0.000000,0.000000,0.000000,00.00000,00.00000, 1
     65,    -80,'1 ',  0.00096,  0.01377,  0.24648,1493.89,   0.00,   0.00,0.00000,000.000, 0.00000, 0.00000, 0.00000, 0.00000, 1
     65,    297,'1 ',  0.00092,  0.01319,  0.23607,1493.89,   0.00,   0.00,0.00000,000.000, 0.00000, 0.00000, 0.00000, 0.00000, 1
     66,     65,'1 ',  0.00081,  0.03088,  0.00000, 405.00,   0.00,   0.00,1.000000,0.000000,0.000000,0.000000,00.00000,00.00000, 1
     66,    -67,'1 ',  0.00066,  0.00336,  0.00000,   6.71,   0.00,   0.00,0.00000,000.000, 0.00000, 0.00000, 0.00000, 0.00000, 1
     66,    308,'1 ',  0.00718,  0.06895,  0.02226, 320.29,   0.00,   0.00,0.00000,000.000, 0.00000, 0.00000, 0.00000, 0.00000, 1
     68,    -69,'1 ',  0.00067,  0.00400,  0.00000,  27.64,   0.00,   0.00,0.00000,000.000, 0.00000, 0.00000, 0.00000, 0.00000, 1
     68,    295,'1 ',  0.00447,  0.04100,  0.01453, 320.29,   0.00,   0.00,0.00000,000.000, 0.00000, 0.00000, 0.00000, 0.00000, 1
     68,    314,'1 ',  0.00181,  0.01733,  0.00560, 320.29,   0.00,   0.00,0.00000,000.000, 0.00000, 0.00000, 0.00000, 0.00000, 1
     70,   -216,'1 ',  0.00260,  0.02381,  0.00844, 320.29,   0.00,   0.00,0.00000,000.000, 0.00000, 0.00000, 0.00000, 0.00000, 1
     70,    490,'1 ',  0.00213,  0.01951,  0.00691, 320.29,   0.00,   0.00,0.00000,000.000, 0.00000, 0.00000, 0.00000, 0.00000, 1
     71,     70,'1 ',  0.00103,  0.04472,  0.00000, 133.00,   0.00,   0.00,1.000000,0.000000,0.000000,0.000000,00.00000,00.00000, 1
     72,     70,'1 ',  0.00292,  0.14481,  0.00000,  60.00,   0.00,   0.00,1.000000,0.000000,0.000000,0.000000,00.00000,00.00000, 1
     73,     70,'1 ',  0.01270,  0.27303,  0.00000,  49.00,   0.00,   0.00,1.000000,0.000000,0.000000,0.000000,00.00000,00.00000, 1
     74,    -75,'1 ',  0.00058,  0.00334,  0.00000,   8.81,   0.00,   0.00,0.00000,000.000, 0.00000, 0.00000, 0.00000, 0.00000, 1
     74,    189,'1 ',  0.00563,  0.05408,  0.01746, 320.29,   0.00,   0.00,0.00000,000.000, 0.00000, 0.00000, 0.00000, 0.00000, 1
     74,   -240,'1 ',  0.00443,  0.04067,  0.01441, 320.29,   0.00,   0.00,0.00000,000.000, 0.00000, 0.00000, 0.00000, 0.00000, 1
     76,    -77,'1 ',  0.00070,  0.00331,  0.00000,  12.16,   0.00,   0.00,0.00000,000.000, 0.00000, 0.00000, 0.00000, 0.00000, 1
     76,   -452,'1 ',  0.00201,  0.01932,  0.00624, 320.29,   0.00,   0.00,0.00000,000.000, 0.00000, 0.00000, 0.00000, 0.00000, 1
     78,    -79,'1 ',  0.00062,  0.00328,  0.00000,   0.52,   0.00,   0.00,0.00000,000.000, 0.00000, 0.00000, 0.00000, 0.00000, 1
     78,    328,'1 ',  0.00543,  0.04983,  0.01766, 320.29,   0.00,   0.00,0.00000,000.000, 0.00000, 0.00000, 0.00000, 0.00000, 1
     78,    387,'1 ',  0.00235,  0.02261,  0.00730, 320.29,   0.00,   0.00,0.00000,000.000, 0.00000, 0.00000, 0.00000, 0.00000, 1
     80,   -407,'1 ',  0.00082,  0.01082,  0.22813,1493.89,   0.00,   0.00,0.00000,000.000, 0.00000, 0.00000, 0.00000, 0.00000, 1
     81,     80,'1 ',  0.00065,  0.03481,  0.00000, 529.00,   0.00,   0.00,1.000000,0.000000,0.000000,0.000000,00.00000,00.00000, 1
     81,   -149,'1 ',  0.00288,  0.02641,  0.00936, 320.29,   0.00,   0.00,0.00000,000.000, 0.00000, 0.00000, 0.00000, 0.00000, 1
     82,     80,'1 ',  0.00043,  0.03113,  0.00000, 628.00,   0.00,   0.00,1.000000,0.000000,0.000000,0.000000,00.00000,00.00000, 1
     83,    -84,'1 ',  0.00064,  0.00366,  0.00000, 105.41,   0.00,   0.00,0.00000,000.000, 0.00000, 0.00000, 0.00000, 0.00000, 1
     83,    342,'1 ',  0.00412,  0.03952,  0.01276, 320.29,   0.00,   0.00,0.00000,000.000, 0.00000, 0.00000, 0.00000, 0.00000, 1
     85,    -86,'1 ',  0.00065,  0.00390,  0.00000,  30.04,   0.00,   0.00,0.00000,000.000, 0.00000, 0.00000, 0.00000, 0.00000, 1
     85,   -272,'1 ',  0.00441,  0.04047,  0.01434, 320.29,   0.00,   0.00,0.00000,000.000, 0.00000, 0.00000, 0.00000, 0.00000, 1
     87,    -88,'1 ',  0.00062,  0.00357,  0.00000,   7.69,   0.00,   0.00,0.00000,000.000, 0.00000, 0.00000, 0.00000, 0.00000, 1
     87,    141,'1 ',  0.00185,  0.01773,  0.00572, 320.29,   0.00,   0.00,0.00000,000.000, 0.00000, 0.00000, 0.00000, 0.00000, 1
     87,    143,'1 ',  0.00382,  0.03504,  0.01242, 320.29,   0.00,   0.00,0.00000,000.000, 0.00000, 0.00000, 0.00000, 0.00000, 1
     87,   -423,'1 ',  0.00184,  0.01763,  0.00569, 320.29,   0.00,   0.00,0.00000,000.000, 0.00000, 0.00000, 0.00000, 0.00000, 1
     89,    -90,'1 ',  0.00055,  0.00386,  0.00000,  10.48,   0.00,   0.00,0.00000,000.000, 0.00000, 0.00000, 0.00000, 0.00000, 1
     89,    187,'1 ',  0.00212,  0.02032,  0.00656, 320.29,   0.00,   0.00,0.00000,000.000, 0.00000, 0.00000, 0.00000, 0.00000, 1
     89,    457,'1 ',  0.00901,  0.08267,  0.02929, 320.29,   0.00,   0.00,0.00000,000.000, 0.00000, 0.00000, 0.00000, 0.00000, 1
     91,    -92,'1 ',  0.00057,  0.00362,  0.00000, 104.24,   0.00,   0.00,0.00000,000.000, 0.00000, 0.00000, 0.00000, 0.00000, 1
     91,    133,'1 ',  0.00504,  0.04840,  0.01562, 320.29,   0.00,   0.00,0.00000,000.000, 0.00000, 0.00000, 0.00000, 0.00000, 1
     93,    -94,'1 ',  0.00054,  0.00328,  0.00000,   8.18,   0.00,   0.00,0.00000,000.000, 0.00000, 0.00000, 0.00000, 0.00000, 1
     93,   -269,'1 ',  0.00392,  0.03596,  0.01275, 320.29,   0.00,   0.00,0.00000,000.000, 0.00000, 0.00000, 0.00000, 0.00000, 1
     93,   -336,'1 ',  0.00579,  0.05315,  0.01884, 320.29,   0.00,   0.00,0.00000,000.000, 0.00000, 0.00000, 0.00000, 0.00000, 1
     95,    -96,'1 ',  0.00056,  0.00325,  0.00000,  56.18,   0.00,   0.00,0.00000,000.000, 0.00000, 0.00000, 0.00000, 0.00000, 1
     95,    170,'1 ',  0.00211,  0.02027,  0.00654, 320.29,   0.00,   0.00,0.00000,000.000, 0.00000, 0.00000, 0.00000, 0.00000, 1
     95,    369,'1 ',  0.00409,  0.03932,  0.01269, 320.29,   0.00,   0.00,0.00000,000.000, 0.00000, 0.00000, 0.00000, 0.00000, 1
     97,    -98,'1 ',  0.00057,  0.00399,  0.00000,  66.43,   0.00,   0.00,0.00000,000.000, 0.00000, 0.00000, 0.00000, 0.00000, 1
     97,   -181,'1 ',  0.00299,  0.02873,  0.00928, 320.29,   0.00,   0.00,0.00000,000.000, 0.00000, 0.00000, 0.00000, 0.00000, 1
     97,   -358,'1 ',  0.00268,  0.02455,  0.00870, 320.29,   0.00,   0.00,0.00000,000.000, 0.00000, 0.00000, 0.00000, 0.00000, 1
     99,   -100,'1 ',  0.00064,  0.00362,  0.00000,  22.69,   0.00,   0.00,0.00000,000.000, 0.00000, 0.00000, 0.00000, 0.00000, 1
     99,   -101,'1 ',  0.00070,  0.00329,  0.00000,   1.37,   0.00,   0.00,0.00000,000.000, 0.00000, 0.00000, 0.00000, 0.00000, 1
     99,    465,'1 ',  0.00269,  0.02582,  0.00834, 320.29,   0.00,   0.00,0.00000,000.000, 0.00000, 0.00000, 0.00000, 0.00000, 1
     99,   -472,'1 ',  0.00332,  0.03186,  0.01029, 320.29,   0.00,   0.00,0.00000,000.000, 0.00000, 0.00000, 0.00000, 0.00000, 1
    102,   -103,'1 ',  0.00061,  0.00387,  0.00000,  64.60,   0.00,   0.00,0.00000,000.000, 0.00000, 0.00000, 0.00000, 0.00000, 1
    102,    308,'1 ',  0.00565,  0.05425,  0.01751, 320.29,   0.00,   0.00,0.00000,000.000, 0.00000, 0.00000, 0.00000, 0.00000, 1
    102,   -419,'1 ',  0.00364,  0.03494,  0.01128, 320.29,   0.00,   0.00,0.00000,000.000, 0.00000, 0.00000, 0.00000, 0.00000, 1
    104,   -105,'1 ',  0.00067,  0.00375,  0.00000, 144.23,   0.00,   0.00,0.00000,000.000, 0.00000, 0.00000, 0.00000, 0.00000, 1
    104,    191,'1 ',  0.00518,  0.04749,  0.01683, 320.29,   0.00,   0.00,0.00000,000.000, 0.00000, 0.00000, 0.00000, 0.00000, 1
    106,   -107,'1 ',  0.00057,  0.00321,  0.00000,  24.46,   0.00,   0.00,0.00000,000.000, 0.00000, 0.00000, 0.00000, 0.00000, 1
    106,    191,'1 ',  0.00447,  0.04290,  0.01385, 320.29,   0.00,   0.00,0.00000,000.000, 0.00000, 0.00000, 0.00000, 0.00000, 1
    106,   -236,'1 ',  0.00312,  0.02991,  0.00966, 320.29,   0.00,   0.00,0.00000,000.000, 0.00000, 0.00000, 0.00000, 0.00000, 1
    108,   -109,'1 ',  0.00066,  0.00301,  0.00000,  62.91,   0.00,   0.00,0.00000,000.000, 0.00000, 0.00000, 0.00000, 0.00000, 1
    108,    472,'1 ',  0.00203,  0.01952,  0.00630, 320.29,   0.00,   0.00,0.00000,000.000, 0.00000, 0.00000, 0.00000, 0.00000, 1
    108,    495,'1 ',  0.00361,  0.03467,  0.01119, 320.29,   0.00,   0.00,0.00000,000.000, 0.00000, 0.00000, 0.00000, 0.00000, 1
    110,   -111,'1 ',  0.00053,  0.00371,  0.00000,  87.02,   0.00,   0.00,0.00000,000.000, 0.00000, 0.00000, 0.00000, 0.00000, 1
    110,   -274,'1 ',  0.00313,  0.03002,  0.00969, 320.29,   0.00,   0.00,0.00000,000.000, 0.00000, 0.00000, 0.00000, 0.00000, 1
    110,    316,'1 ',  0.00344,  0.03302,  0.01066, 320.29,   0.00,   0.00,0.00000,000.000, 0.00000, 0.00000, 0.00000, 0.00000, 1
    112,   -113,'1 ',  0.00064,  0.00312,  0.00000,  72.98,   0.00,   0.00,0.00000,000.000, 0.00000, 0.00000, 0.00000, 0.00000, 1
    112,   -193,'1 ',  0.00287,  0.02753,  0.00889, 320.29,   0.00,   0.00,0.00000,000.000, 0.00000, 0.00000, 0.00000, 0.00000, 1
    112,    236,'1 ',  0.00633,  0.06078,  0.01962, 320.29,   0.00,   0.00,0.00000,000.000, 0.00000, 0.00000, 0.00000, 0.00000, 1
    112,    283,'1 ',  0.00862,  0.08276,  0.02672, 320.29,   0.00,   0.00,0.00000,000.000, 0.00000, 0.00000, 0.00000, 0.00000, 1
    112,   -372,'1 ',  0.00201,  0.01927,  0.00622, 320.29,   0.00,   0.00,0.00000,000.000, 0.00000, 0.00000, 0.00000, 0.00000, 1
    112,    499,'1 ',  0.00558,  0.05115,  0.01813, 320.29,   0.00,   0.00,0.00000,000.000, 0.00000, 0.00000, 0.00000, 0.00000, 1
    114,   -115,'1 ',  0.00051,  0.00336,  0.00000,   6.74,   0.00,   0.00,0.00000,000.000, 0.00000, 0.00000, 0.00000, 0.00000, 1
    114,   -116,'1 ',  0.00051,  0.00341,  0.00000,   5.26,   0.00,   0.00,0.00000,000.000, 0.00000, 0.00000, 0.00000, 0.00000, 1
    114,    191,'1 ',  0.00556,  0.05336,  0.01723, 320.29,   0.00,   0.00,0.00000,000.000, 0.00000, 0.00000, 0.00000, 0.00000, 1
    114,    312,'1 ',  0.00661,  0.06346,  0.02049, 320.29,   0.00,   0.00,0.00000,000.000, 0.00000, 0.00000, 0.00000, 0.00000, 1
    117,   -118,'1 ',  0.00063,  0.00385,  0.00000,  12.80,   0.00,   0.00,0.00000,000.000, 0.00000, 0.00000, 0.00000, 0.00000, 1
    117,    426,'1 ',  0.00317,  0.02910,  0.01031, 320.29,   0.00,   0.00,0.00000,000.000, 0.00000, 0.00000, 0.00000, 0.00000, 1
    117,   -490,'1 ',  0.00300,  0.02751,  0.00975, 320.29,   0.00,   0.00,0.00000,000.000, 0.00000, 0.00000, 0.00000, 0.00000, 1
    119,   -120,'1 ',  0.00056,  0.00306,  0.00000,  46.58,   0.00,   0.00,0.00000,000.000, 0.00000, 0.00000, 0.00000, 0.00000, 1
    119,    129,'1 ',  0.00235,  0.02155,  0.00764, 320.29,   0.00,   0.00,0.00000,000.000, 0.00000, 0.00000, 0.00000, 0.00000, 1
    119,   -253,'1 ',  0.00149,  0.01435,  0.00463, 320.29,   0.00,   0.00,0.00000,000.000, 0.00000, 0.00000, 0.00000, 0.00000, 1
    121,   -122,'1 ',  0.00055,  0.00385,  0.00000,  70.42,   0.00,   0.00,0.00000,000.000, 0.00000, 0.00000, 0.00000, 0.00000, 1
    121,    276,'1 ',  0.00255,  0.02446,  0.00790, 320.29,   0.00,   0.00,0.00000,000.000, 0.00000, 0.00000, 0.00000, 0.00000, 1
    121,    287,'1 ',  0.00709,  0.06806,  0.02197, 320.29,   0.00,   0.00,0.00000,000.000, 0.00000, 0.00000, 0.00000, 0.00000, 1
    123,   -165,'1 ',  0.00022,  0.00314,  0.05475,1493.89,   0.00,   0.00,0.00000,000.000, 0.00000, 0.00000, 0.00000, 0.00000, 1
    124,    123,'1 ',  0.00020,  0.01438,  0.00000, 488.00,   0.00,   0.00,1.000000,0.000000,0.000000,0.000000,00.00000,00.00000, 1
    124,    260,'1 ',  0.00204,  0.01871,  0.00663, 320.29,   0.00,   0.00,0.00000,000.000, 0.00000, 0.00000, 0.00000, 0.00000, 1
...
0 / END OF BRANCH DATA, BEGIN TRANSFORMER ADJUSTMENT DATA
0 / END OF TRANSFORMER ADJUSTMENT DATA, BEGIN AREA DATA
   1,      0,     0.0,  1.000,'SOUTHCAROLIN'
0 / END OF AREA DATA, BEGIN TWO-TERMINAL DC DATA
0 / END OF TWO-TERMINAL DC DATA, BEGIN SWITCHED SHUNT DATA
0 / END OF SWITCHED SHUNT DATA, BEGIN IMPEDANCE CORRECTION DATA
0 / END OF IMPEDANCE CORRECTION DATA, BEGIN MULTI-TERMINAL DC DATA
0 / END OF MULTI-TERMINAL DC DATA, BEGIN MULTI-SECTION LINE DATA
0 / END OF MULTI-SECTION LINE DATA, BEGIN ZONE DATA
    2,'MIDLANDS    '
    1,'UPSTATE     '
0 / END OF ZONE DATA, BEGIN INTER-AREA TRANSFER DATA
0 / END OF INTER-AREA TRANSFER DATA, BEGIN OWNER DATA
    1,'1           '
0 / END OF OWNER DATA, BEGIN FACTS DEVICE DATA
